* NGSPICE file created from uart_top.ext - technology: ihp-sg13g2

.subckt sg13g2_nand4_1 VDD Y B C VSS A D a_350_122# a_146_122# a_248_122#
X0 Y D VDD VDD sg13_lv_pmos ad=0.2128p pd=1.5u as=0.3808p ps=2.92u w=1.12u l=0.13u
X1 VDD C Y VDD sg13_lv_pmos ad=0.2128p pd=1.5u as=0.2128p ps=1.5u w=1.12u l=0.13u
X2 Y B VDD VDD sg13_lv_pmos ad=0.2128p pd=1.5u as=0.2128p ps=1.5u w=1.12u l=0.13u
X3 VDD A Y VDD sg13_lv_pmos ad=0.3808p pd=2.92u as=0.2128p ps=1.5u w=1.12u l=0.13u
X4 a_146_122# D VSS VSS sg13_lv_nmos ad=0.1406p pd=1.12u as=0.2516p ps=2.16u w=0.74u l=0.13u
X5 a_248_122# C a_146_122# VSS sg13_lv_nmos ad=0.1406p pd=1.12u as=0.1406p ps=1.12u w=0.74u l=0.13u
X6 a_350_122# B a_248_122# VSS sg13_lv_nmos ad=0.1406p pd=1.12u as=0.1406p ps=1.12u w=0.74u l=0.13u
X7 Y A a_350_122# VSS sg13_lv_nmos ad=0.2516p pd=2.16u as=0.1406p ps=1.12u w=0.74u l=0.13u
C0 a_146_122# A 0.00255f
C1 a_350_122# B 0
C2 C a_146_122# 0.00463f
C3 a_146_122# Y 0
C4 a_350_122# A 0.01498f
C5 a_248_122# B 0.00894f
C6 VDD B 0.06422f
C7 a_350_122# Y 0.0034f
C8 a_248_122# A 0.00438f
C9 B A 0.15921f
C10 VDD A 0.06841f
C11 D B 0.00119f
C12 VDD D 0.10815f
C13 a_248_122# Y 0.00116f
C14 B Y 0.03997f
C15 D A 0
C16 C B 0.0968f
C17 VDD Y 0.65519f
C18 VDD C 0.06231f
C19 A Y 0.19155f
C20 C A 0.00144f
C21 D Y 0.00615f
C22 D C 0.10021f
C23 C Y 0.04534f
C24 a_146_122# B 0.00217f
C25 VDD a_146_122# 0
C26 Y VSS 0.11884f
C27 A VSS 0.28662f
C28 B VSS 0.25681f
C29 C VSS 0.23783f
C30 D VSS 0.31842f
C31 VDD VSS 0.1856f
C32 a_350_122# VSS 0.00326f
C33 a_248_122# VSS 0.00787f
C34 a_146_122# VSS 0.01185f
.ends

.subckt sg13g2_o21ai_1 VSS VDD Y B1 A2 A1 a_22_110# a_120_432#
X0 VSS A1 a_22_110# VSS sg13_lv_nmos ad=0.1406p pd=1.12u as=0.2516p ps=2.16u w=0.74u l=0.15u
X1 a_120_432# A1 VDD VDD sg13_lv_pmos ad=0.2128p pd=1.5u as=0.3808p ps=2.92u w=1.12u l=0.15u
X2 a_22_110# A2 VSS VSS sg13_lv_nmos ad=0.1406p pd=1.12u as=0.1406p ps=1.12u w=0.74u l=0.15u
X3 Y B1 a_22_110# VSS sg13_lv_nmos ad=0.2516p pd=2.16u as=0.1406p ps=1.12u w=0.74u l=0.15u
X4 Y A2 a_120_432# VDD sg13_lv_pmos ad=0.2128p pd=1.5u as=0.2128p ps=1.5u w=1.12u l=0.15u
X5 VDD B1 Y VDD sg13_lv_pmos ad=0.3808p pd=2.92u as=0.2128p ps=1.5u w=1.12u l=0.15u
C0 Y A2 0.00831f
C1 a_120_432# Y 0.01075f
C2 VDD Y 0.25563f
C3 Y B1 0.14887f
C4 a_22_110# A1 0.08993f
C5 A1 A2 0.16466f
C6 a_22_110# A2 0.07347f
C7 a_22_110# a_120_432# 0.00202f
C8 VDD A1 0.10532f
C9 a_22_110# B1 0.0343f
C10 a_22_110# VDD 0.01054f
C11 a_120_432# A2 0.00412f
C12 A2 B1 0.13775f
C13 VDD A2 0.07355f
C14 VDD a_120_432# 0.01765f
C15 VDD B1 0.07683f
C16 Y A1 0.00415f
C17 a_22_110# Y 0.09468f
C18 Y VSS 0.1332f
C19 B1 VSS 0.26491f
C20 A2 VSS 0.23928f
C21 A1 VSS 0.29152f
C22 VDD VSS 0.15947f
C23 a_22_110# VSS 0.23844f
.ends

.subckt sg13g2_nand2_1 Y VDD A VSS B a_154_118#
X0 a_154_118# B VSS VSS sg13_lv_nmos ad=0.1406p pd=1.12u as=0.2516p ps=2.16u w=0.74u l=0.13u
X1 Y A a_154_118# VSS sg13_lv_nmos ad=0.2516p pd=2.16u as=0.1406p ps=1.12u w=0.74u l=0.13u
X2 Y B VDD VDD sg13_lv_pmos ad=0.2128p pd=1.5u as=0.3808p ps=2.92u w=1.12u l=0.13u
X3 VDD A Y VDD sg13_lv_pmos ad=0.3808p pd=2.92u as=0.2128p ps=1.5u w=1.12u l=0.13u
C0 Y B 0.09606f
C1 a_154_118# Y 0.01478f
C2 Y A 0.18104f
C3 VDD B 0.13471f
C4 a_154_118# VDD 0
C5 VDD A 0.13631f
C6 B A 0.03549f
C7 Y VDD 0.35534f
C8 Y VSS 0.14921f
C9 A VSS 0.27833f
C10 B VSS 0.34136f
C11 VDD VSS 0.18798f
C12 a_154_118# VSS 0.00954f
.ends

.subckt sg13g2_nor4_1 VSS VDD B C Y A D a_252_412# a_354_412# a_150_412#
X0 a_252_412# B a_150_412# VDD sg13_lv_pmos ad=0.2128p pd=1.5u as=0.2128p ps=1.5u w=1.12u l=0.13u
X1 VSS D Y VSS sg13_lv_nmos ad=0.23757p pd=2.16u as=0.1406p ps=1.12u w=0.74u l=0.13u
X2 a_354_412# C a_252_412# VDD sg13_lv_pmos ad=0.2128p pd=1.5u as=0.2128p ps=1.5u w=1.12u l=0.13u
X3 Y D a_354_412# VDD sg13_lv_pmos ad=0.4368p pd=3.02u as=0.2128p ps=1.5u w=1.12u l=0.13u
X4 Y A VSS VSS sg13_lv_nmos ad=0.1406p pd=1.12u as=0.2516p ps=2.16u w=0.74u l=0.13u
X5 a_150_412# A VDD VDD sg13_lv_pmos ad=0.2128p pd=1.5u as=0.3808p ps=2.92u w=1.12u l=0.13u
X6 VSS B Y VSS sg13_lv_nmos ad=0.1406p pd=1.12u as=0.1406p ps=1.12u w=0.74u l=0.13u
X7 Y C VSS VSS sg13_lv_nmos ad=0.1406p pd=1.12u as=0.1406p ps=1.12u w=0.74u l=0.13u
C0 D B 0.00137f
C1 A VDD 0.10226f
C2 A C 0.00143f
C3 a_150_412# B 0.00654f
C4 Y A 0.00424f
C5 D a_354_412# 0.01872f
C6 B VDD 0.06451f
C7 B C 0.13277f
C8 D a_150_412# 0.00257f
C9 B Y 0.07201f
C10 a_354_412# VDD 0.00639f
C11 D VDD 0.08653f
C12 D a_252_412# 0.00484f
C13 C a_354_412# 0.00109f
C14 D C 0.17586f
C15 a_150_412# VDD 0.01693f
C16 Y a_354_412# 0.00721f
C17 D Y 0.29969f
C18 a_150_412# C 0.00293f
C19 a_252_412# VDD 0.0114f
C20 B A 0.13275f
C21 a_150_412# Y 0.00183f
C22 C VDD 0.07676f
C23 a_252_412# C 0.01274f
C24 Y VDD 0.06531f
C25 a_252_412# Y 0.00319f
C26 D A 0
C27 Y C 0.06437f
C28 Y VSS 0.52358f
C29 D VSS 0.25802f
C30 C VSS 0.23959f
C31 B VSS 0.22965f
C32 A VSS 0.32252f
C33 VDD VSS 0.15278f
C34 a_150_412# VSS 0
.ends

.subckt sg13g2_nor2_1 A VDD Y VSS B a_170_412#
X0 Y A VSS VSS sg13_lv_nmos ad=0.1406p pd=1.12u as=0.2516p ps=2.16u w=0.74u l=0.13u
X1 a_170_412# A VDD VDD sg13_lv_pmos ad=0.1176p pd=1.33u as=0.4032p ps=2.96u w=1.12u l=0.13u
X2 VSS B Y VSS sg13_lv_nmos ad=0.2516p pd=2.16u as=0.1406p ps=1.12u w=0.74u l=0.13u
X3 Y B a_170_412# VDD sg13_lv_pmos ad=0.3808p pd=2.92u as=0.1176p ps=1.33u w=1.12u l=0.13u
C0 A VDD 0.10369f
C1 A Y 0.0857f
C2 B VDD 0.06787f
C3 B Y 0.12405f
C4 a_170_412# VDD 0.00784f
C5 Y a_170_412# 0.01284f
C6 B A 0.05647f
C7 Y VDD 0.14531f
C8 Y VSS 0.30197f
C9 B VSS 0.30701f
C10 A VSS 0.31971f
C11 VDD VSS 0.14884f
C12 a_170_412# VSS 0
.ends

.subckt sg13g2_dlygate4sd3_1 A VDD VSS X a_56_118# a_326_118# a_438_182#
X0 VDD A a_56_118# VDD sg13_lv_pmos ad=0.1523p pd=1.38u as=0.1428p ps=1.52u w=0.42u l=0.13u
X1 VSS a_326_118# a_438_182# VSS sg13_lv_nmos ad=0.1426p pd=1.16u as=0.1428p ps=1.52u w=0.42u l=0.5u
X2 VDD a_326_118# a_438_182# VDD sg13_lv_pmos ad=0.2254p pd=1.53u as=0.34p ps=2.68u w=1u l=0.5u
X3 X a_438_182# VDD VDD sg13_lv_pmos ad=0.4256p pd=3u as=0.2254p ps=1.53u w=1.12u l=0.13u
X4 a_326_118# a_56_118# VDD VDD sg13_lv_pmos ad=0.34p pd=2.68u as=0.1523p ps=1.38u w=1u l=0.5u
X5 VSS A a_56_118# VSS sg13_lv_nmos ad=79.8f pd=0.8u as=0.1428p ps=1.52u w=0.42u l=0.13u
X6 X a_438_182# VSS VSS sg13_lv_nmos ad=0.2516p pd=2.16u as=0.1426p ps=1.16u w=0.74u l=0.13u
X7 a_326_118# a_56_118# VSS VSS sg13_lv_nmos ad=0.1428p pd=1.52u as=79.8f ps=0.8u w=0.42u l=0.5u
C0 VDD a_56_118# 0.29986f
C1 X VDD 0.14188f
C2 VDD a_326_118# 0.21855f
C3 VDD a_438_182# 0.18056f
C4 VDD A 0.09104f
C5 a_56_118# a_326_118# 0.26306f
C6 X a_326_118# 0.0066f
C7 a_56_118# a_438_182# 0.00311f
C8 X a_438_182# 0.15526f
C9 A a_56_118# 0.38085f
C10 a_326_118# a_438_182# 0.55452f
C11 A a_326_118# 0
C12 X VSS 0.18594f
C13 A VSS 0.22317f
C14 VDD VSS 0.18416f
C15 a_438_182# VSS 0.37543f
C16 a_326_118# VSS 0.31678f
C17 a_56_118# VSS 0.48098f
.ends

.subckt sg13g2_buf_8 X VDD A VSS a_27_118#
X0 VSS A a_27_118# VSS sg13_lv_nmos ad=0.1406p pd=1.12u as=0.1406p ps=1.12u w=0.74u l=0.13u
X1 VSS A a_27_118# VSS sg13_lv_nmos ad=0.1406p pd=1.12u as=0.2553p ps=2.17u w=0.74u l=0.13u
X2 VDD A a_27_118# VDD sg13_lv_pmos ad=0.2128p pd=1.5u as=0.2128p ps=1.5u w=1.12u l=0.13u
X3 X a_27_118# VSS VSS sg13_lv_nmos ad=0.1406p pd=1.12u as=0.1406p ps=1.12u w=0.74u l=0.13u
X4 VDD A a_27_118# VDD sg13_lv_pmos ad=0.2128p pd=1.5u as=0.3808p ps=2.92u w=1.12u l=0.13u
X5 X a_27_118# VDD VDD sg13_lv_pmos ad=0.2128p pd=1.5u as=0.2128p ps=1.5u w=1.12u l=0.13u
X6 VSS a_27_118# X VSS sg13_lv_nmos ad=0.1406p pd=1.12u as=0.1406p ps=1.12u w=0.74u l=0.13u
X7 VDD a_27_118# X VDD sg13_lv_pmos ad=0.2128p pd=1.5u as=0.2128p ps=1.5u w=1.12u l=0.13u
X8 X a_27_118# VSS VSS sg13_lv_nmos ad=0.1406p pd=1.12u as=0.1406p ps=1.12u w=0.74u l=0.13u
X9 VSS a_27_118# X VSS sg13_lv_nmos ad=0.1406p pd=1.12u as=0.1406p ps=1.12u w=0.74u l=0.13u
X10 X a_27_118# VDD VDD sg13_lv_pmos ad=0.2128p pd=1.5u as=0.2128p ps=1.5u w=1.12u l=0.13u
X11 X a_27_118# VSS VSS sg13_lv_nmos ad=0.1406p pd=1.12u as=0.1406p ps=1.12u w=0.74u l=0.13u
X12 VDD a_27_118# X VDD sg13_lv_pmos ad=0.2128p pd=1.5u as=0.2128p ps=1.5u w=1.12u l=0.13u
X13 X a_27_118# VDD VDD sg13_lv_pmos ad=0.2128p pd=1.5u as=0.2128p ps=1.5u w=1.12u l=0.13u
X14 VSS a_27_118# X VSS sg13_lv_nmos ad=0.1406p pd=1.12u as=0.1406p ps=1.12u w=0.74u l=0.13u
X15 VDD a_27_118# X VDD sg13_lv_pmos ad=0.2128p pd=1.5u as=0.2128p ps=1.5u w=1.12u l=0.13u
X16 X a_27_118# VSS VSS sg13_lv_nmos ad=0.1406p pd=1.12u as=0.1406p ps=1.12u w=0.74u l=0.13u
X17 VSS a_27_118# X VSS sg13_lv_nmos ad=0.2516p pd=2.16u as=0.1406p ps=1.12u w=0.74u l=0.13u
X18 X a_27_118# VDD VDD sg13_lv_pmos ad=0.2128p pd=1.5u as=0.2128p ps=1.5u w=1.12u l=0.13u
X19 VDD a_27_118# X VDD sg13_lv_pmos ad=0.3864p pd=2.93u as=0.2128p ps=1.5u w=1.12u l=0.13u
X20 a_27_118# A VSS VSS sg13_lv_nmos ad=0.1406p pd=1.12u as=0.1406p ps=1.12u w=0.74u l=0.13u
X21 a_27_118# A VDD VDD sg13_lv_pmos ad=0.2128p pd=1.5u as=0.2128p ps=1.5u w=1.12u l=0.13u
C0 X a_27_118# 0.85609f
C1 A VDD 0.18614f
C2 X VDD 1.1647f
C3 a_27_118# VDD 1.02912f
C4 X A 0.00116f
C5 A a_27_118# 0.38802f
C6 X VSS 0.80804f
C7 A VSS 0.73542f
C8 VDD VSS 0.24105f
C9 a_27_118# VSS 2.34974f
.ends

.subckt sg13g2_inv_1 Y A VSS VDD
X0 Y A VSS VSS sg13_lv_nmos ad=0.2516p pd=2.16u as=0.2516p ps=2.16u w=0.74u l=0.13u
X1 Y A VDD VDD sg13_lv_pmos ad=0.3808p pd=2.92u as=0.3808p ps=2.92u w=1.12u l=0.13u
C0 Y VDD 0.17546f
C1 Y A 0.07236f
C2 VDD A 0.11028f
C3 Y VSS 0.21734f
C4 A VSS 0.34374f
C5 VDD VSS 0.13996f
.ends

.subckt sg13g2_decap_4 VDD VSS
X0 VDD VSS VDD VDD sg13_lv_pmos ad=0.34p pd=2.68u as=2.4331p ps=11.58u w=1u l=1u
X1 VSS VDD VSS VSS sg13_lv_nmos ad=0.1428p pd=1.52u as=1.84612p ps=9.32u w=0.42u l=1u
C0 VDD VSS 1.02143f
.ends

.subckt sg13g2_dfrbpq_1 VDD D Q CLK VSS RESET_B a_2002_114# a_741_93# a_612_127# a_2250_412#
+ a_1840_334# a_1785_429# a_843_236# a_132_114# a_681_505# a_38_114# a_324_432# a_1583_191#
+ a_1489_191# a_550_127# a_298_337#
X0 VSS RESET_B a_132_114# VSS sg13_lv_nmos ad=0.1626p pd=1.415u as=60.89999f ps=0.71u w=0.42u l=0.13u
X1 a_550_127# RESET_B VSS VSS sg13_lv_nmos ad=37.8f pd=0.6u as=0.1701p ps=1.65u w=0.42u l=0.13u
X2 a_298_337# a_741_93# a_681_505# VDD sg13_lv_pmos ad=79.8f pd=0.8u as=63f ps=0.72u w=0.42u l=0.13u
X3 a_1840_334# a_1583_191# a_2002_114# VSS sg13_lv_nmos ad=0.1428p pd=1.52u as=37.8f ps=0.6u w=0.42u l=0.13u
X4 a_38_114# a_843_236# a_298_337# VDD sg13_lv_pmos ad=0.1428p pd=1.52u as=79.8f ps=0.8u w=0.42u l=0.13u
X5 a_741_93# CLK VSS VSS sg13_lv_nmos ad=0.2516p pd=2.16u as=2.26778p ps=14.665u w=0.74u l=0.13u
X6 a_38_114# D VDD VDD sg13_lv_pmos ad=79.8f pd=0.8u as=0.1428p ps=1.52u w=0.42u l=0.13u
X7 a_741_93# CLK VDD VDD sg13_lv_pmos ad=0.4088p pd=2.97u as=1.12285p ps=7.26u w=1.12u l=0.13u
X8 VSS a_741_93# a_843_236# VSS sg13_lv_nmos ad=2.26778p pd=14.665u as=0.2516p ps=2.16u w=0.74u l=0.13u
X9 VSS a_1840_334# a_1489_191# VSS sg13_lv_nmos ad=79.8f pd=0.8u as=0.1428p ps=1.52u w=0.42u l=0.13u
X10 VDD RESET_B a_38_114# VDD sg13_lv_pmos ad=0.36237p pd=2.605u as=79.8f ps=0.8u w=0.42u l=0.13u
X11 a_324_432# a_298_337# VSS VSS sg13_lv_nmos ad=0.2516p pd=2.16u as=0.1626p ps=1.415u w=0.74u l=0.13u
X12 VDD a_741_93# a_843_236# VDD sg13_lv_pmos ad=1.12285p pd=7.26u as=0.3864p ps=2.93u w=1.12u l=0.13u
X13 a_2002_114# RESET_B VSS VSS sg13_lv_nmos ad=37.8f pd=0.6u as=79.8f ps=0.8u w=0.42u l=0.13u
X14 VDD a_1583_191# a_2250_412# VDD sg13_lv_pmos ad=0.2128p pd=1.5u as=0.3864p ps=2.93u w=1.12u l=0.13u
X15 Q a_2250_412# VDD VDD sg13_lv_pmos ad=0.3808p pd=2.92u as=0.2128p ps=1.5u w=1.12u l=0.13u
X16 a_132_114# D a_38_114# VSS sg13_lv_nmos ad=60.89999f pd=0.71u as=0.1428p ps=1.52u w=0.42u l=0.13u
X17 a_1785_429# a_843_236# a_1583_191# VDD sg13_lv_pmos ad=93.45f pd=0.865u as=0.2048p ps=1.63u w=0.42u l=0.13u
X18 VDD a_1583_191# a_1840_334# VDD sg13_lv_pmos ad=1.12285p pd=7.26u as=79.8f ps=0.8u w=0.42u l=0.13u
X19 a_1583_191# a_741_93# a_324_432# VDD sg13_lv_pmos ad=0.2048p pd=1.63u as=0.34p ps=2.68u w=1u l=0.13u
X20 a_1583_191# a_741_93# a_1489_191# VSS sg13_lv_nmos ad=0.12665p pd=1.145u as=0.1428p ps=1.52u w=0.42u l=0.13u
X21 VDD a_1840_334# a_1785_429# VDD sg13_lv_pmos ad=1.12285p pd=7.26u as=93.45f ps=0.865u w=0.42u l=0.13u
X22 a_1840_334# RESET_B VDD VDD sg13_lv_pmos ad=79.8f pd=0.8u as=1.12285p ps=7.26u w=0.42u l=0.13u
X23 a_324_432# a_843_236# a_1583_191# VSS sg13_lv_nmos ad=0.3473p pd=2.71u as=0.12665p ps=1.145u w=0.74u l=0.13u
X24 a_298_337# a_741_93# a_38_114# VSS sg13_lv_nmos ad=79.8f pd=0.8u as=0.1296p ps=1.52u w=0.42u l=0.13u
X25 a_612_127# a_324_432# a_550_127# VSS sg13_lv_nmos ad=0.1428p pd=1.52u as=37.8f ps=0.6u w=0.42u l=0.13u
X26 a_681_505# a_324_432# VDD VDD sg13_lv_pmos ad=63f pd=0.72u as=0.1563p ps=1.22u w=0.42u l=0.13u
X27 a_612_127# a_843_236# a_298_337# VSS sg13_lv_nmos ad=0.2373p pd=1.97u as=79.8f ps=0.8u w=0.42u l=0.13u
X28 VSS a_1583_191# a_2250_412# VSS sg13_lv_nmos ad=0.1406p pd=1.12u as=0.2516p ps=2.16u w=0.74u l=0.13u
X29 a_324_432# a_298_337# VDD VDD sg13_lv_pmos ad=0.34p pd=2.68u as=0.36237p ps=2.605u w=1u l=0.13u
X30 Q a_2250_412# VSS VSS sg13_lv_nmos ad=0.2516p pd=2.16u as=0.1406p ps=1.12u w=0.74u l=0.13u
X31 VDD RESET_B a_298_337# VDD sg13_lv_pmos ad=0.1563p pd=1.22u as=0.147p ps=1.54u w=0.42u l=0.13u
C0 a_612_127# RESET_B 0
C1 a_612_127# a_741_93# 0.01562f
C2 RESET_B D 0.06252f
C3 VDD CLK 0.05935f
C4 CLK a_324_432# 0.06169f
C5 a_1489_191# a_1840_334# 0.008f
C6 RESET_B a_38_114# 0.0806f
C7 a_741_93# a_38_114# 0.02454f
C8 a_1840_334# RESET_B 0.10165f
C9 a_1840_334# a_741_93# 0
C10 a_1785_429# a_843_236# 0
C11 a_1489_191# VDD 0
C12 a_1489_191# a_324_432# 0.43239f
C13 a_843_236# a_298_337# 0.01f
C14 VDD RESET_B 1.12721f
C15 RESET_B a_324_432# 0.36792f
C16 VDD a_741_93# 0.23491f
C17 a_741_93# a_324_432# 0.3749f
C18 a_1583_191# a_843_236# 0.26905f
C19 a_2250_412# RESET_B 0
C20 a_612_127# a_843_236# 0.12701f
C21 a_1489_191# a_2002_114# 0
C22 a_843_236# a_38_114# 0.097f
C23 a_1583_191# Q 0.00144f
C24 a_1840_334# a_843_236# 0.02979f
C25 a_1785_429# a_1583_191# 0.00689f
C26 a_843_236# VDD 0.20377f
C27 a_843_236# a_324_432# 0.34114f
C28 a_612_127# a_298_337# 0.00463f
C29 a_1785_429# a_1840_334# 0.00412f
C30 a_298_337# a_38_114# 0.75507f
C31 a_132_114# a_38_114# 0.00716f
C32 VDD Q 0.21822f
C33 RESET_B CLK 0.00606f
C34 CLK a_741_93# 0.231f
C35 a_1583_191# a_38_114# 0
C36 a_2250_412# Q 0.11397f
C37 a_1785_429# VDD 0
C38 a_612_127# a_38_114# 0.31978f
C39 D a_38_114# 0.25543f
C40 a_1583_191# a_1840_334# 0.34468f
C41 a_612_127# a_550_127# 0
C42 VDD a_298_337# 0.09361f
C43 a_132_114# VDD 0
C44 a_298_337# a_324_432# 0.36952f
C45 a_1489_191# RESET_B 0
C46 a_1489_191# a_741_93# 0.01058f
C47 a_1583_191# VDD 0.16747f
C48 a_1583_191# a_324_432# 0.01529f
C49 a_612_127# VDD 0.00534f
C50 a_612_127# a_324_432# 0.43707f
C51 VDD D 0.08992f
C52 RESET_B a_741_93# 0.03432f
C53 a_1583_191# a_2250_412# 0.0894f
C54 a_681_505# a_298_337# 0.00333f
C55 VDD a_38_114# 0.7744f
C56 a_38_114# a_324_432# 0.41329f
C57 a_843_236# CLK 0.00754f
C58 a_1840_334# VDD 0.16819f
C59 a_1840_334# a_324_432# 0.00242f
C60 a_550_127# a_324_432# 0.0052f
C61 a_1840_334# a_2250_412# 0.10373f
C62 a_1583_191# a_2002_114# 0.00174f
C63 a_681_505# a_38_114# 0.00801f
C64 a_1489_191# a_843_236# 0.00647f
C65 VDD a_324_432# 0.07206f
C66 a_2250_412# VDD 0.37641f
C67 a_843_236# RESET_B 0.42048f
C68 a_843_236# a_741_93# 0.47622f
C69 a_1840_334# a_2002_114# 0.00188f
C70 a_1583_191# CLK 0
C71 a_612_127# CLK 0
C72 a_2250_412# a_2002_114# 0
C73 a_1785_429# RESET_B 0.00351f
C74 CLK a_38_114# 0
C75 a_1489_191# a_1583_191# 0.28931f
C76 RESET_B a_298_337# 0.23212f
C77 a_741_93# a_298_337# 0.02242f
C78 a_1583_191# RESET_B 0.13292f
C79 a_1583_191# a_741_93# 0.00332f
C80 Q VSS 0.24298f
C81 CLK VSS 0.23486f
C82 D VSS 0.22538f
C83 RESET_B VSS 0.72089f
C84 VDD VSS 0.51338f
C85 a_2002_114# VSS 0.00329f
C86 a_1489_191# VSS 0.09495f
C87 a_612_127# VSS 0.03671f
C88 a_2250_412# VSS 0.4394f
C89 a_1840_334# VSS 0.24725f
C90 a_1583_191# VSS 0.54231f
C91 a_132_114# VSS 0
C92 a_843_236# VSS 0.37915f
C93 a_741_93# VSS 0.84197f
C94 a_324_432# VSS 1.59655f
C95 a_38_114# VSS 0.19333f
C96 a_298_337# VSS 0.24243f
.ends

.subckt sg13g2_decap_8 VDD VSS
X0 VDD VSS VDD VDD sg13_lv_pmos ad=0.34p pd=2.68u as=4.13118p ps=17.18u w=1u l=1u
X1 VSS VDD VSS VSS sg13_lv_nmos ad=0.1428p pd=1.52u as=3.1269p ps=15.58u w=0.42u l=1u
X2 VDD VSS VDD VDD sg13_lv_pmos ad=0.19p pd=1.38u as=0 ps=0 w=1u l=1u
X3 VSS VDD VSS VSS sg13_lv_nmos ad=79.8f pd=0.8u as=0 ps=0 w=0.42u l=1u
C0 VDD VSS 1.70328f
.ends

.subckt sg13g2_buf_1 A X VDD VSS a_40_152#
X0 X a_40_152# VSS VSS sg13_lv_nmos ad=0.2886p pd=2.26u as=0.14875p ps=1.16u w=0.74u l=0.13u
X1 X a_40_152# VDD VDD sg13_lv_pmos ad=0.42p pd=2.99u as=0.2114p ps=1.54u w=1.12u l=0.13u
X2 VDD A a_40_152# VDD sg13_lv_pmos ad=0.2114p pd=1.54u as=0.2856p ps=2.36u w=0.84u l=0.13u
X3 VSS A a_40_152# VSS sg13_lv_nmos ad=0.14875p pd=1.16u as=0.187p ps=1.78u w=0.55u l=0.13u
C0 VDD A 0.0816f
C1 a_40_152# A 0.23529f
C2 VDD X 0.09007f
C3 a_40_152# X 0.24411f
C4 a_40_152# VDD 0.21522f
C5 A X 0.00143f
C6 X VSS 0.19609f
C7 A VSS 0.22324f
C8 VDD VSS 0.12141f
C9 a_40_152# VSS 0.4249f
.ends

.subckt sg13g2_and4_1 X B A VDD VSS C D a_277_118# a_379_118# a_175_118# a_81_118#
X0 VDD D a_81_118# VDD sg13_lv_pmos ad=0.2044p pd=1.53u as=0.1848p ps=1.28u w=0.84u l=0.13u
X1 a_175_118# A a_81_118# VSS sg13_lv_nmos ad=0.1216p pd=1.02u as=0.2176p ps=1.96u w=0.64u l=0.13u
X2 a_277_118# B a_175_118# VSS sg13_lv_nmos ad=0.1216p pd=1.02u as=0.1216p ps=1.02u w=0.64u l=0.13u
X3 a_379_118# C a_277_118# VSS sg13_lv_nmos ad=0.1408p pd=1.08u as=0.1216p ps=1.02u w=0.64u l=0.13u
X4 VSS D a_379_118# VSS sg13_lv_nmos ad=0.1447p pd=1.15u as=0.1408p ps=1.08u w=0.64u l=0.13u
X5 X a_81_118# VSS VSS sg13_lv_nmos ad=0.3552p pd=2.44u as=0.1447p ps=1.15u w=0.74u l=0.13u
X6 X a_81_118# VDD VDD sg13_lv_pmos ad=0.5376p pd=3.2u as=0.2044p ps=1.53u w=1.12u l=0.13u
X7 a_81_118# A VDD VDD sg13_lv_pmos ad=0.1596p pd=1.22u as=0.2856p ps=2.36u w=0.84u l=0.13u
X8 VDD B a_81_118# VDD sg13_lv_pmos ad=0.1596p pd=1.22u as=0.1596p ps=1.22u w=0.84u l=0.13u
X9 a_81_118# C VDD VDD sg13_lv_pmos ad=0.1848p pd=1.28u as=0.1596p ps=1.22u w=0.84u l=0.13u
C0 a_81_118# VDD 0.70737f
C1 C a_81_118# 0.0563f
C2 a_81_118# a_379_118# 0.00418f
C3 a_277_118# X 0
C4 a_81_118# D 0.21557f
C5 C VDD 0.06933f
C6 B a_277_118# 0.00265f
C7 a_81_118# a_175_118# 0.00762f
C8 a_81_118# X 0.13893f
C9 a_81_118# A 0.18162f
C10 VDD D 0.07245f
C11 C a_379_118# 0.00228f
C12 B a_81_118# 0.06186f
C13 C D 0.11708f
C14 VDD X 0.13007f
C15 a_379_118# D 0
C16 VDD A 0.07959f
C17 C X 0
C18 B VDD 0.0702f
C19 a_379_118# X 0
C20 D X 0.00401f
C21 C B 0.14215f
C22 D A 0
C23 a_81_118# a_277_118# 0.00512f
C24 a_175_118# X 0
C25 B D 0
C26 a_175_118# A 0.00311f
C27 X A 0
C28 B X 0
C29 B A 0.15375f
C30 X VSS 0.21264f
C31 D VSS 0.23191f
C32 C VSS 0.20595f
C33 B VSS 0.20625f
C34 A VSS 0.23908f
C35 VDD VSS 0.18071f
C36 a_379_118# VSS 0.01293f
C37 a_277_118# VSS 0.00842f
C38 a_175_118# VSS 0.00695f
C39 a_81_118# VSS 0.4151f
.ends

.subckt sg13g2_a21oi_1 VDD VSS A2 A1 B1 Y a_155_412# a_257_140#
X0 Y B1 VSS VSS sg13_lv_nmos ad=0.1406p pd=1.12u as=0.2516p ps=2.16u w=0.74u l=0.13u
X1 a_257_140# A1 Y VSS sg13_lv_nmos ad=0.1406p pd=1.12u as=0.1406p ps=1.12u w=0.74u l=0.13u
X2 VSS A2 a_257_140# VSS sg13_lv_nmos ad=0.2516p pd=2.16u as=0.1406p ps=1.12u w=0.74u l=0.13u
X3 a_155_412# B1 Y VDD sg13_lv_pmos ad=0.2128p pd=1.5u as=0.3808p ps=2.92u w=1.12u l=0.13u
X4 VDD A1 a_155_412# VDD sg13_lv_pmos ad=0.2128p pd=1.5u as=0.2128p ps=1.5u w=1.12u l=0.13u
X5 a_155_412# A2 VDD VDD sg13_lv_pmos ad=0.3808p pd=2.92u as=0.2128p ps=1.5u w=1.12u l=0.13u
C0 VDD B1 0.06738f
C1 A2 a_155_412# 0.07418f
C2 Y VDD 0.05624f
C3 A2 A1 0.1231f
C4 A1 a_155_412# 0.03234f
C5 a_155_412# a_257_140# 0
C6 A1 a_257_140# 0.00719f
C7 a_155_412# B1 0.00414f
C8 A2 Y 0.00366f
C9 A1 B1 0.03191f
C10 a_155_412# Y 0.15622f
C11 A1 Y 0.09773f
C12 Y a_257_140# 0.00663f
C13 A2 VDD 0.06857f
C14 Y B1 0.1687f
C15 a_155_412# VDD 0.2347f
C16 A1 VDD 0.0594f
C17 Y VSS 0.15002f
C18 A2 VSS 0.33944f
C19 A1 VSS 0.24294f
C20 B1 VSS 0.30991f
C21 VDD VSS 0.13819f
C22 a_257_140# VSS 0.01118f
C23 a_155_412# VSS 0.03831f
.ends

.subckt sg13g2_nor3_1 A Y B C VDD VSS a_165_412# a_279_412#
X0 Y A VSS VSS sg13_lv_nmos ad=0.1694p pd=1.21u as=0.2618p ps=2.22u w=0.77u l=0.13u
X1 a_165_412# A VDD VDD sg13_lv_pmos ad=0.2464p pd=1.56u as=0.3808p ps=2.92u w=1.12u l=0.13u
X2 VSS B Y VSS sg13_lv_nmos ad=0.1463p pd=1.15u as=0.1694p ps=1.21u w=0.77u l=0.13u
X3 Y C VSS VSS sg13_lv_nmos ad=0.2618p pd=2.22u as=0.1463p ps=1.15u w=0.77u l=0.13u
X4 a_279_412# B a_165_412# VDD sg13_lv_pmos ad=0.2128p pd=1.5u as=0.2464p ps=1.56u w=1.12u l=0.13u
X5 Y C a_279_412# VDD sg13_lv_pmos ad=0.3808p pd=2.92u as=0.2128p ps=1.5u w=1.12u l=0.13u
C0 a_279_412# Y 0.02655f
C1 VDD C 0.05605f
C2 C Y 0.08229f
C3 B a_279_412# 0.00165f
C4 A VDD 0.1048f
C5 A Y 0.0512f
C6 VDD Y 0.14949f
C7 C B 0.11131f
C8 VDD a_165_412# 0.01349f
C9 A B 0.03265f
C10 Y a_165_412# 0.02315f
C11 VDD B 0.05343f
C12 B Y 0.15497f
C13 VDD a_279_412# 0.00716f
C14 Y VSS 0.38592f
C15 C VSS 0.27786f
C16 B VSS 0.24155f
C17 A VSS 0.33054f
C18 VDD VSS 0.154f
C19 a_165_412# VSS 0
.ends

.subckt sg13g2_nand3_1 VDD Y B C A VSS a_146_122# a_248_122#
X0 Y C VDD VDD sg13_lv_pmos ad=0.2128p pd=1.5u as=0.3808p ps=2.92u w=1.12u l=0.13u
X1 VDD B Y VDD sg13_lv_pmos ad=0.2128p pd=1.5u as=0.2128p ps=1.5u w=1.12u l=0.13u
X2 Y A VDD VDD sg13_lv_pmos ad=0.3808p pd=2.92u as=0.2128p ps=1.5u w=1.12u l=0.13u
X3 a_146_122# C VSS VSS sg13_lv_nmos ad=0.1406p pd=1.12u as=0.2886p ps=2.26u w=0.74u l=0.13u
X4 a_248_122# B a_146_122# VSS sg13_lv_nmos ad=0.1406p pd=1.12u as=0.1406p ps=1.12u w=0.74u l=0.13u
X5 Y A a_248_122# VSS sg13_lv_nmos ad=0.2516p pd=2.16u as=0.1406p ps=1.12u w=0.74u l=0.13u
C0 Y B 0.14198f
C1 Y a_146_122# 0.00609f
C2 C B 0.12786f
C3 VDD Y 0.50606f
C4 A B 0.03712f
C5 C VDD 0.10125f
C6 A VDD 0.07823f
C7 a_146_122# B 0.00482f
C8 VDD B 0.06219f
C9 C Y 0.00893f
C10 VDD a_146_122# 0
C11 A Y 0.19738f
C12 a_248_122# Y 0.01426f
C13 Y VSS 0.1568f
C14 A VSS 0.27778f
C15 B VSS 0.23887f
C16 C VSS 0.31404f
C17 VDD VSS 0.15692f
C18 a_248_122# VSS 0.00708f
C19 a_146_122# VSS 0.01185f
.ends

.subckt sg13g2_mux4_1 X A1 A2 S0 VDD VSS S1 A0 A3 a_1453_124# a_500_118# a_805_385#
+ a_1023_118# a_589_385# a_382_118# a_1377_160# a_295_385# a_810_118# a_71_118# a_1109_431#
+ a_886_118# a_308_118#
X0 a_886_118# a_71_118# a_810_118# VSS sg13_lv_nmos ad=0.1776p pd=1.195u as=80f ps=0.89u w=0.64u l=0.13u
X1 VDD S0 a_71_118# VDD sg13_lv_pmos ad=0.22315p pd=1.555u as=0.34p ps=2.68u w=1u l=0.13u
X2 X a_1377_160# VSS VSS sg13_lv_nmos ad=0.2516p pd=2.16u as=0.1543p ps=1.18u w=0.74u l=0.13u
X3 X a_1377_160# VDD VDD sg13_lv_pmos ad=0.3808p pd=2.92u as=0.34367p ps=1.775u w=1.12u l=0.13u
X4 a_1023_118# S0 a_886_118# VSS sg13_lv_nmos ad=76.8f pd=0.88u as=0.1776p ps=1.195u w=0.64u l=0.13u
X5 VSS S1 a_1453_124# VSS sg13_lv_nmos ad=0.1543p pd=1.18u as=0.2304p ps=2u w=0.64u l=0.13u
X6 VSS A3 a_1023_118# VSS sg13_lv_nmos ad=0.2176p pd=1.96u as=76.8f ps=0.88u w=0.64u l=0.13u
X7 VSS S0 a_71_118# VSS sg13_lv_nmos ad=0.1872p pd=1.225u as=0.2176p ps=1.96u w=0.64u l=0.13u
X8 a_810_118# A2 VSS VSS sg13_lv_nmos ad=80f pd=0.89u as=0.1824p ps=1.21u w=0.64u l=0.13u
X9 a_886_118# S0 a_805_385# VDD sg13_lv_pmos ad=0.4425p pd=1.885u as=0.20762p ps=1.605u w=1u l=0.13u
X10 VDD S1 a_1453_124# VDD sg13_lv_pmos ad=0.34367p pd=1.775u as=0.34p ps=2.68u w=1u l=0.13u
X11 a_382_118# S0 a_295_385# VDD sg13_lv_pmos ad=0.19p pd=1.38u as=0.415p ps=1.83u w=1u l=0.13u
X12 VDD A1 a_589_385# VDD sg13_lv_pmos ad=0.29275p pd=1.785u as=0.16p ps=1.32u w=1u l=0.13u
X13 a_1109_431# a_71_118# a_886_118# VDD sg13_lv_pmos ad=0.135p pd=1.27u as=0.4425p ps=1.885u w=1u l=0.13u
X14 a_295_385# A0 VDD VDD sg13_lv_pmos ad=0.415p pd=1.83u as=0.22315p ps=1.555u w=1u l=0.13u
X15 a_1377_160# S1 a_382_118# VDD sg13_lv_pmos ad=0.2225p pd=1.445u as=0.34p ps=2.68u w=1u l=0.13u
X16 a_308_118# A0 VSS VSS sg13_lv_nmos ad=76.8f pd=0.88u as=0.1872p ps=1.225u w=0.64u l=0.13u
X17 a_500_118# S0 a_382_118# VSS sg13_lv_nmos ad=0.2304p pd=1.36u as=0.1472p ps=1.1u w=0.64u l=0.13u
X18 a_589_385# a_71_118# a_382_118# VDD sg13_lv_pmos ad=0.16p pd=1.32u as=0.19p ps=1.38u w=1u l=0.13u
X19 a_1377_160# S1 a_886_118# VSS sg13_lv_nmos ad=0.1216p pd=1.02u as=0.54188p ps=3.42u w=0.64u l=0.13u
X20 a_382_118# a_71_118# a_308_118# VSS sg13_lv_nmos ad=0.1472p pd=1.1u as=76.8f ps=0.88u w=0.64u l=0.13u
X21 VSS A1 a_500_118# VSS sg13_lv_nmos ad=0.1824p pd=1.21u as=0.2304p ps=1.36u w=0.64u l=0.13u
X22 VDD A3 a_1109_431# VDD sg13_lv_pmos ad=0.34p pd=2.68u as=0.135p ps=1.27u w=1u l=0.13u
X23 a_382_118# a_1453_124# a_1377_160# VSS sg13_lv_nmos ad=0.2176p pd=1.96u as=0.1216p ps=1.02u w=0.64u l=0.13u
X24 a_805_385# A2 VDD VDD sg13_lv_pmos ad=0.20762p pd=1.605u as=0.29275p ps=1.785u w=1u l=0.13u
X25 a_886_118# a_1453_124# a_1377_160# VDD sg13_lv_pmos ad=0.34p pd=2.68u as=0.2225p ps=1.445u w=1u l=0.13u
C0 a_1377_160# S1 0.14457f
C1 a_1453_124# VDD 0.11819f
C2 A3 S1 0.01889f
C3 A1 A2 0.21938f
C4 a_1453_124# S1 0.21448f
C5 VDD S1 0.12827f
C6 A2 VDD 0.06277f
C7 a_71_118# a_805_385# 0.00361f
C8 a_1377_160# X 0.17802f
C9 a_71_118# a_308_118# 0.01005f
C10 a_382_118# a_805_385# 0.01916f
C11 a_589_385# a_886_118# 0
C12 a_1453_124# X 0.00621f
C13 X VDD 0.10163f
C14 X S1 0.0026f
C15 a_589_385# A1 0.00404f
C16 a_71_118# a_382_118# 0.42566f
C17 a_589_385# VDD 0.00197f
C18 a_805_385# a_886_118# 0.00545f
C19 a_1109_431# a_382_118# 0.01223f
C20 a_71_118# S0 0.34178f
C21 a_71_118# a_295_385# 0.01062f
C22 a_308_118# A0 0
C23 a_382_118# S0 0.06033f
C24 a_382_118# a_295_385# 0.02523f
C25 a_71_118# a_810_118# 0.00674f
C26 a_71_118# A0 0.17236f
C27 a_71_118# a_886_118# 0.43413f
C28 a_382_118# a_810_118# 0
C29 a_382_118# A0 0.00998f
C30 a_382_118# a_886_118# 0.85574f
C31 a_308_118# VDD 0
C32 a_805_385# A2 0.00419f
C33 a_1109_431# a_886_118# 0.00734f
C34 a_71_118# a_1023_118# 0
C35 a_71_118# A3 0.0458f
C36 a_71_118# A1 0.14811f
C37 a_382_118# a_1377_160# 0.41984f
C38 a_71_118# VDD 0.3406f
C39 S0 A0 0.15955f
C40 a_886_118# S0 0.02641f
C41 a_295_385# A0 0.00232f
C42 a_382_118# A3 0.13069f
C43 a_382_118# A1 0.11259f
C44 a_382_118# a_1453_124# 0.00979f
C45 a_71_118# A2 0.15938f
C46 a_382_118# VDD 0.744f
C47 a_810_118# a_886_118# 0.00256f
C48 a_1109_431# VDD 0
C49 a_71_118# a_500_118# 0.0287f
C50 S0 A3 0.02476f
C51 A1 S0 0.01671f
C52 a_382_118# S1 0.02853f
C53 a_382_118# A2 0.09263f
C54 a_1109_431# A2 0
C55 a_382_118# a_500_118# 0.0036f
C56 VDD S0 0.56794f
C57 a_295_385# VDD 0.02405f
C58 a_1377_160# a_886_118# 0.32904f
C59 S0 S1 0
C60 a_1023_118# a_886_118# 0.00918f
C61 a_886_118# A3 0.18247f
C62 A2 S0 0.01443f
C63 a_886_118# A1 0
C64 a_1453_124# a_886_118# 0.35001f
C65 VDD A0 0.0679f
C66 a_886_118# VDD 0.02984f
C67 a_810_118# A2 0
C68 a_71_118# a_589_385# 0.0024f
C69 a_886_118# S1 0.02622f
C70 a_886_118# A2 0.01087f
C71 a_1453_124# a_1377_160# 0.22938f
C72 a_1377_160# VDD 0.61806f
C73 a_500_118# a_886_118# 0
C74 a_382_118# a_589_385# 0.01949f
C75 VDD A3 0.08809f
C76 A1 VDD 0.05664f
C77 X VSS 0.29321f
C78 A2 VSS 0.20503f
C79 A1 VSS 0.20768f
C80 S1 VSS 0.66234f
C81 A3 VSS 0.27632f
C82 A0 VSS 0.20294f
C83 S0 VSS 0.73014f
C84 VDD VSS 0.35536f
C85 a_1023_118# VSS 0
C86 a_810_118# VSS 0.00424f
C87 a_500_118# VSS 0.00614f
C88 a_308_118# VSS 0.00348f
C89 a_1377_160# VSS 0.29006f
C90 a_886_118# VSS 0.68706f
C91 a_382_118# VSS 0.01962f
C92 a_1453_124# VSS 0.35661f
C93 a_71_118# VSS 1.0703f
.ends

.subckt sg13g2_a21o_1 B1 X VDD VSS A1 A2 a_358_436# a_115_308# a_494_160#
X0 VSS a_115_308# X VSS sg13_lv_nmos ad=0.15745p pd=1.175u as=0.2351p ps=2.16u w=0.74u l=0.13u
X1 VDD A1 a_358_436# VDD sg13_lv_pmos ad=0.19p pd=1.38u as=0.2125p ps=1.425u w=1u l=0.13u
X2 VSS A2 a_494_160# VSS sg13_lv_nmos ad=0.2176p pd=1.96u as=81.6f ps=0.895u w=0.64u l=0.13u
X3 a_358_436# A2 VDD VDD sg13_lv_pmos ad=0.34p pd=2.68u as=0.19p ps=1.38u w=1u l=0.13u
X4 a_115_308# B1 VSS VSS sg13_lv_nmos ad=0.1216p pd=1.02u as=0.15745p ps=1.175u w=0.64u l=0.13u
X5 a_494_160# A1 a_115_308# VSS sg13_lv_nmos ad=81.6f pd=0.895u as=0.1216p ps=1.02u w=0.64u l=0.13u
X6 a_358_436# B1 a_115_308# VDD sg13_lv_pmos ad=0.2125p pd=1.425u as=0.35p ps=2.7u w=1u l=0.13u
X7 VDD a_115_308# X VDD sg13_lv_pmos ad=0.3808p pd=2.92u as=0.3808p ps=2.92u w=1.12u l=0.13u
C0 A1 a_358_436# 0.06636f
C1 VDD B1 0.07268f
C2 A1 A2 0.05923f
C3 A1 a_494_160# 0
C4 VDD A1 0.06624f
C5 B1 A1 0.13988f
C6 X a_115_308# 0.17404f
C7 X VDD 0.20523f
C8 a_115_308# a_358_436# 0.13617f
C9 A2 a_115_308# 0.00148f
C10 X B1 0
C11 a_115_308# a_494_160# 0
C12 VDD a_115_308# 0.32255f
C13 A2 a_358_436# 0.01543f
C14 a_358_436# a_494_160# 0
C15 B1 a_115_308# 0.20007f
C16 VDD a_358_436# 0.29318f
C17 A2 a_494_160# 0
C18 VDD A2 0.05852f
C19 A1 a_115_308# 0.00476f
C20 B1 a_358_436# 0.04481f
C21 X VSS 0.17763f
C22 A2 VSS 0.57948f
C23 A1 VSS 0.24618f
C24 B1 VSS 0.2056f
C25 VDD VSS 0.15504f
C26 a_494_160# VSS 0.01069f
C27 a_358_436# VSS 0.05587f
C28 a_115_308# VSS 0.53611f
.ends

.subckt sg13g2_xor2_1 X VDD B A VSS a_209_168# a_177_436# a_380_412# a_474_130#
X0 VSS a_209_168# X VSS sg13_lv_nmos ad=0.3108p pd=2.32u as=0.1628p ps=1.18u w=0.74u l=0.13u
X1 VDD A a_380_412# VDD sg13_lv_pmos ad=0.2128p pd=1.5u as=0.3808p ps=2.92u w=1.12u l=0.13u
X2 a_380_412# B VDD VDD sg13_lv_pmos ad=0.2128p pd=1.5u as=0.2128p ps=1.5u w=1.12u l=0.13u
X3 X a_209_168# a_380_412# VDD sg13_lv_pmos ad=0.3808p pd=2.92u as=0.2128p ps=1.5u w=1.12u l=0.13u
X4 a_177_436# A VDD VDD sg13_lv_pmos ad=0.1225p pd=1.245u as=0.36p ps=2.72u w=1u l=0.13u
X5 a_209_168# A VSS VSS sg13_lv_nmos ad=0.17462p pd=1.185u as=0.374p ps=2.46u w=0.55u l=0.13u
X6 a_209_168# B a_177_436# VDD sg13_lv_pmos ad=0.34p pd=2.68u as=0.1225p ps=1.245u w=1u l=0.13u
X7 VSS B a_209_168# VSS sg13_lv_nmos ad=0.15245p pd=1.17u as=0.17462p ps=1.185u w=0.55u l=0.13u
X8 a_474_130# A VSS VSS sg13_lv_nmos ad=88.8f pd=0.98u as=0.15245p ps=1.17u w=0.74u l=0.13u
X9 X B a_474_130# VSS sg13_lv_nmos ad=0.1628p pd=1.18u as=88.8f ps=0.98u w=0.74u l=0.13u
C0 a_209_168# X 0.21684f
C1 VDD X 0.0411f
C2 a_474_130# B 0.00427f
C3 X a_380_412# 0.09723f
C4 a_209_168# VDD 0.20368f
C5 a_209_168# a_380_412# 0.37141f
C6 X B 0.01747f
C7 X A 0.00304f